
This summary file was generated by TurbSim (v1.06.01a-bjj, 18-Oct-2012) on 05-Mar-2014 at 16:00:30.


Runtime Options:

   2318573  Random seed #1
    RANLUX  Type of random number generator
         F  Output binary HH turbulence parameters?
         F  Output formatted turbulence parameters?
         F  Output AeroDyn HH files?
         F  Output AeroDyn FF files?
         T  Output BLADED FF files?
         F  Output tower data?
         F  Output formatted FF files?
         F  Output coherent turbulence time step file?
         T  Clockwise rotation when looking downwind?
 0 -  NONE  IEC turbulence models scaled to exact specified standard deviation


Turbine/Model Specifications:

         7  Vertical grid-point matrix dimension
         3  Horizontal grid-point matrix dimension
     0.200  Time step [seconds]
 12000.000  Analysis time [seconds]
 10000.000  Usable output time [seconds]
    84.288  Hub height [m]
    80.000  Grid height [m]
    80.000  Grid width [m]
     0.000  Vertical flow angle [degrees]
     0.000  Horizontal flow angle [degrees]


Meteorological Boundary Conditions:

    IECKAI  IEC Kaimal spectral model
         1  IEC standard: IEC 61400-1 Ed. 3: 2005
         A  IEC turbulence characteristic
       NTM  IEC Normal Turbulence Model
       N/A  IEC Extreme Turbulence Model (ETM) "c" parameter [m/s]
       LOG  Wind profile type
    10.000  Reference height [m]
    18.400  Reference wind speed [m/s]
       N/A  Jet height [m]
       N/A  Power law exponent
     0.030  Surface roughness length [m]


You have requested that the following file(s) be generated:

   ./inp_files/IecKai.wnd (AeroDyn/BLADED full-field wnd file)


Turbulence Simulation Scaling Parameter Summary:

   Turbulence model used                            =  IEC Kaimal
   Turbulence characteristic                        =  A
   IEC turbulence type                              =  Normal Turbulence Model
   IEC standard                                     =  IEC 61400-1 Ed. 3: 2005
   Mean wind speed at hub height                    =   25.152 m/s
   Expected value of turbulence intensity at 15 m/s =   16.000%
   Characteristic value of standard deviation       =    3.914 m/s
   Turbulence scale                                 =   42.000 m
   u-component integral scale                       =  340.200 m
   Coherency scale                                  =  340.200 m
   Characteristic value of hub turbulence intensity =   15.562%
   Gradient Richardson number                       =    0.000

   Wind profile type                                =  Logarithmic
   Equivalent power law exponent across rotor disk  =    0.128
   Mean shear across rotor disk                     =    0.041 (m/s)/m
   Assumed rotor diameter                           =   80.000 m
   Surface roughness length                         =    0.030 m

   Number of time steps in the FFT                  =    60000
   Number of time steps output                      =    50016


Mean Flow Angles:

   Vertical   =   0.0 degrees
   Horizontal =   0.0 degrees

Mean Wind Speed Profile:

   Height    Wind Speed   Horizontal Angle  U-comp (X)   V-comp (Y)   W-comp (Z)
     (m)        (m/s)         (degrees)       (m/s)        (m/s)        (m/s)   
   ------    ----------   ----------------  ----------   ----------   ----------
    124.3       26.38            0.00         26.38         0.00         0.00
    111.0       26.02            0.00         26.02         0.00         0.00
     97.6       25.62            0.00         25.62         0.00         0.00
     84.3       25.15            0.00         25.15         0.00         0.00
     71.0       24.61            0.00         24.61         0.00         0.00
     57.6       23.95            0.00         23.95         0.00         0.00
     44.3       23.11            0.00         23.11         0.00         0.00


Harvested Random Seeds after Generation of the Random Numbers:

     17561250 K1
            0 K2


Hub-Height Simulated Turbulence Statistical Summary:

   Type of Wind        Min (m/s)   Mean (m/s)    Max (m/s)  Sigma (m/s)       TI (%)
   ----------------    ---------   ----------    ---------  -----------       ------
   Longitudinal (u)         9.14        25.15        39.69        3.909       15.541
   Lateral (v)            -13.01         0.00        11.24        3.035       12.068
   Vertical (w)            -7.43        -0.00         7.04        1.806        7.181
   U component              9.14        25.15        39.69        3.909       15.541
   V component            -13.01         0.00        11.24        3.035       12.068
   W component             -7.43        -0.00         7.04        1.806        7.181
   Horizontal (U&V)         9.42        25.34        39.75        3.884       15.329
   Total                    9.59        25.40        39.79        3.875       15.255

                       Min Reynolds     Mean Reynolds    Max Reynolds    Correlation
   Product             Stress (m/s)^2   Stress (m/s)^2   Stress (m/s)^2  Coefficient
   ----------------    --------------   --------------   --------------  -----------
   u'w'                    -61.806            -0.014            59.539        -0.002
   u'v'                   -104.003             0.139           104.915         0.012
   v'w'                    -48.408            -0.027            40.405        -0.005


   Friction Velocity (Ustar)  =      0.117 m/s
   Maximum Instantaneous TKE  =    132.360 (m/s)^2
   Maximum Instantaneous CTKE =     56.317 (m/s)^2


Grid Point Variance Summary:

   Y-coord  -40.00    0.00   40.00

   Height   Standard deviation at grid points for the u component:
   124.29    3.918   3.812   3.933
   110.95    3.904   3.779   3.932
    97.62    3.903   3.854   3.935
    84.29    3.898   3.909   3.976
    70.95    3.901   3.941   4.008
    57.62    3.908   3.938   3.946
    44.29    3.853   3.973   3.898

   Height   Standard deviation at grid points for the v component:
   124.29    3.035   3.035   3.035
   110.95    3.035   3.035   3.035
    97.62    3.035   3.035   3.035
    84.29    3.035   3.035   3.035
    70.95    3.035   3.035   3.035
    57.62    3.035   3.035   3.035
    44.29    3.035   3.035   3.035

   Height   Standard deviation at grid points for the w component:
   124.29    1.806   1.806   1.806
   110.95    1.806   1.806   1.806
    97.62    1.806   1.806   1.806
    84.29    1.806   1.806   1.806
    70.95    1.806   1.806   1.806
    57.62    1.806   1.806   1.806
    44.29    1.806   1.806   1.806

   Mean standard deviation across all grid points:
      u component:    3.910 m/s
      v component:    3.035 m/s
      w component:    1.806 m/s


U-component (X) statistics from the hub grid point:

   Mean =  25.1518 m/s
   TI   =  15.5408 %


Normalizing Parameters for Binary Data (approximate statistics):

   UBar  =  25.1518 m/s
   TI(u) =  15.5408 %
   TI(v) =  12.0680 %
   TI(w) =   7.1808 %

   Height Offset =   0.0000 m
   Grid Base     =  44.2876 m

Nyquist frequency of turbulent wind field =         2.500 Hz


Processing complete.  1.8681 CPU seconds used.
