
This summary file was generated by TurbSim (v1.06.01a-bjj, 18-Oct-2012) on 21-May-2014 at 19:08:42.


Runtime Options:

   2318573  Random seed #1
    RANLUX  Type of random number generator
         F  Output binary HH turbulence parameters?
         F  Output formatted turbulence parameters?
         F  Output AeroDyn HH files?
         F  Output AeroDyn FF files?
         T  Output BLADED FF files?
         F  Output tower data?
         F  Output formatted FF files?
         F  Output coherent turbulence time step file?
         T  Clockwise rotation when looking downwind?
 0 -  NONE  IEC turbulence models scaled to exact specified standard deviation


Turbine/Model Specifications:

         3  Vertical grid-point matrix dimension
         3  Horizontal grid-point matrix dimension
     0.500  Time step [seconds]
  2400.000  Analysis time [seconds]
  2000.000  Usable output time [seconds]
    84.288  Hub height [m]
    80.000  Grid height [m]
    80.000  Grid width [m]
     0.000  Vertical flow angle [degrees]
     0.000  Horizontal flow angle [degrees]


Meteorological Boundary Conditions:

    IECKAI  IEC Kaimal spectral model
         1  IEC standard: IEC 61400-1 Ed. 3: 2005
         A  IEC turbulence characteristic
       NTM  IEC Normal Turbulence Model
       N/A  IEC Extreme Turbulence Model (ETM) "c" parameter [m/s]
       LOG  Wind profile type
    10.000  Reference height [m]
    18.400  Reference wind speed [m/s]
       N/A  Jet height [m]
       N/A  Power law exponent
     0.030  Surface roughness length [m]


You have requested that the following file(s) be generated:

   ./inp_files/IecKai_short.wnd (AeroDyn/BLADED full-field wnd file)


Turbulence Simulation Scaling Parameter Summary:

   Turbulence model used                            =  IEC Kaimal
   Turbulence characteristic                        =  A
   IEC turbulence type                              =  Normal Turbulence Model
   IEC standard                                     =  IEC 61400-1 Ed. 3: 2005
   Mean wind speed at hub height                    =   25.152 m/s
   Expected value of turbulence intensity at 15 m/s =   16.000%
   Characteristic value of standard deviation       =    3.914 m/s
   Turbulence scale                                 =   42.000 m
   u-component integral scale                       =  340.200 m
   Coherency scale                                  =  340.200 m
   Characteristic value of hub turbulence intensity =   15.562%
   Gradient Richardson number                       =    0.000

   Wind profile type                                =  Logarithmic
   Equivalent power law exponent across rotor disk  =    0.128
   Mean shear across rotor disk                     =    0.041 (m/s)/m
   Assumed rotor diameter                           =   80.000 m
   Surface roughness length                         =    0.030 m

   Number of time steps in the FFT                  =     4800
   Number of time steps output                      =     4007


Mean Flow Angles:

   Vertical   =   0.0 degrees
   Horizontal =   0.0 degrees

Mean Wind Speed Profile:

   Height    Wind Speed   Horizontal Angle  U-comp (X)   V-comp (Y)   W-comp (Z)
     (m)        (m/s)         (degrees)       (m/s)        (m/s)        (m/s)   
   ------    ----------   ----------------  ----------   ----------   ----------
    124.3       26.38            0.00         26.38         0.00         0.00
     84.3       25.15            0.00         25.15         0.00         0.00
     44.3       23.11            0.00         23.11         0.00         0.00


Harvested Random Seeds after Generation of the Random Numbers:

       602100 K1
            0 K2


Hub-Height Simulated Turbulence Statistical Summary:

   Type of Wind        Min (m/s)   Mean (m/s)    Max (m/s)  Sigma (m/s)       TI (%)
   ----------------    ---------   ----------    ---------  -----------       ------
   Longitudinal (u)        11.44        25.15        37.15        4.065       16.161
   Lateral (v)             -9.97        -0.00         9.03        2.951       11.731
   Vertical (w)            -6.27         0.00         5.91        1.684        6.697
   U component             11.44        25.15        37.15        4.065       16.161
   V component             -9.97        -0.00         9.03        2.951       11.731
   W component             -6.27         0.00         5.91        1.684        6.697
   Horizontal (U&V)        11.58        25.33        37.17        4.024       15.887
   Total                   11.78        25.39        37.18        4.017       15.821

                       Min Reynolds     Mean Reynolds    Max Reynolds    Correlation
   Product             Stress (m/s)^2   Stress (m/s)^2   Stress (m/s)^2  Coefficient
   ----------------    --------------   --------------   --------------  -----------
   u'w'                    -48.801             0.244            54.950         0.036
   u'v'                    -80.609             0.224            63.962         0.019
   v'w'                    -28.771             0.280            38.531         0.056


   Friction Velocity (Ustar)  =      0.494 m/s
   Maximum Instantaneous TKE  =    109.831 (m/s)^2
   Maximum Instantaneous CTKE =     46.627 (m/s)^2


Grid Point Variance Summary:

   Y-coord  -40.00    0.00   40.00

   Height   Standard deviation at grid points for the u component:
   124.29    3.838   3.909   3.844
    84.29    3.909   4.065   4.016
    44.29    3.787   3.907   3.880

   Height   Standard deviation at grid points for the v component:
   124.29    2.951   2.951   2.951
    84.29    2.951   2.951   2.951
    44.29    2.951   2.951   2.951

   Height   Standard deviation at grid points for the w component:
   124.29    1.684   1.684   1.684
    84.29    1.684   1.684   1.684
    44.29    1.684   1.684   1.684

   Mean standard deviation across all grid points:
      u component:    3.906 m/s
      v component:    2.951 m/s
      w component:    1.684 m/s


U-component (X) statistics from the hub grid point:

   Mean =  25.1518 m/s
   TI   =  16.1613 %


Normalizing Parameters for Binary Data (approximate statistics):

   UBar  =  25.1518 m/s
   TI(u) =  16.1613 %
   TI(v) =  11.7315 %
   TI(w) =   6.6965 %

   Height Offset =   0.0000 m
   Grid Base     =  44.2876 m

Nyquist frequency of turbulent wind field =         1.000 Hz


Processing complete.  4.00000E-02 CPU seconds used.
