
This summary file was generated by TurbSim (v1.06.01a-bjj, 18-Oct-2012) on 22-May-2014 at 16:13:34.


Runtime Options:

   2318573  Random seed #1
    RANLUX  Type of random number generator
         F  Output binary HH turbulence parameters?
         F  Output formatted turbulence parameters?
         F  Output AeroDyn HH files?
         F  Output AeroDyn FF files?
         T  Output BLADED FF files?
         F  Output tower data?
         F  Output formatted FF files?
         F  Output coherent turbulence time step file?
         T  Clockwise rotation when looking downwind?
 0 -  NONE  IEC turbulence models scaled to exact specified standard deviation


Turbine/Model Specifications:

         3  Vertical grid-point matrix dimension
         3  Horizontal grid-point matrix dimension
     0.500  Time step [seconds]
  2400.000  Analysis time [seconds]
  2000.000  Usable output time [seconds]
    84.288  Hub height [m]
    80.000  Grid height [m]
    80.000  Grid width [m]
     0.000  Vertical flow angle [degrees]
     0.000  Horizontal flow angle [degrees]


Meteorological Boundary Conditions:

    IECVKM  IEC von Karman spectral model
         1  IEC standard: IEC 61400-1 Ed. 2: 1999
         A  IEC turbulence characteristic
       NTM  IEC Normal Turbulence Model
       N/A  IEC Extreme Turbulence Model (ETM) "c" parameter [m/s]
       LOG  Wind profile type
    10.000  Reference height [m]
    18.400  Reference wind speed [m/s]
       N/A  Jet height [m]
       N/A  Power law exponent
     0.030  Surface roughness length [m]


You have requested that the following file(s) be generated:

   ./inp_files/IecVkm_short.wnd (AeroDyn/BLADED full-field wnd file)


Turbulence Simulation Scaling Parameter Summary:

   Turbulence model used                            =  IEC von Karman
   Turbulence characteristic                        =  A
   IEC turbulence type                              =  Normal Turbulence Model
   IEC standard                                     =  IEC 61400-1 Ed. 2: 1999
   Mean wind speed at hub height                    =   25.152 m/s
   Char value of turbulence intensity at 15 m/s     =   18.000%
   Standard deviation slope                         =    2.000
   Characteristic value of standard deviation       =    3.918 m/s
   Turbulence scale                                 =   21.000 m
   Isotropic integral scale                         =   73.500 m
   Characteristic value of hub turbulence intensity =   15.578%
   Gradient Richardson number                       =    0.000

   Wind profile type                                =  Logarithmic
   Equivalent power law exponent across rotor disk  =    0.128
   Mean shear across rotor disk                     =    0.041 (m/s)/m
   Assumed rotor diameter                           =   80.000 m
   Surface roughness length                         =    0.030 m

   Number of time steps in the FFT                  =     4800
   Number of time steps output                      =     4007


Mean Flow Angles:

   Vertical   =   0.0 degrees
   Horizontal =   0.0 degrees

Mean Wind Speed Profile:

   Height    Wind Speed   Horizontal Angle  U-comp (X)   V-comp (Y)   W-comp (Z)
     (m)        (m/s)         (degrees)       (m/s)        (m/s)        (m/s)   
   ------    ----------   ----------------  ----------   ----------   ----------
    124.3       26.38            0.00         26.38         0.00         0.00
     84.3       25.15            0.00         25.15         0.00         0.00
     44.3       23.11            0.00         23.11         0.00         0.00


Harvested Random Seeds after Generation of the Random Numbers:

       602100 K1
            0 K2


Hub-Height Simulated Turbulence Statistical Summary:

   Type of Wind        Min (m/s)   Mean (m/s)    Max (m/s)  Sigma (m/s)       TI (%)
   ----------------    ---------   ----------    ---------  -----------       ------
   Longitudinal (u)        10.59        25.15        38.23        3.817       15.175
   Lateral (v)            -12.46        -0.00        11.98        3.684       14.646
   Vertical (w)           -13.88        -0.00        12.89        3.684       14.646
   U component             10.59        25.15        38.23        3.817       15.175
   V component            -12.46        -0.00        11.98        3.684       14.646
   W component            -13.88        -0.00        12.89        3.684       14.646
   Horizontal (U&V)        10.88        25.43        38.29        3.776       14.849
   Total                   11.52        25.69        38.33        3.758       14.626

                       Min Reynolds     Mean Reynolds    Max Reynolds    Correlation
   Product             Stress (m/s)^2   Stress (m/s)^2   Stress (m/s)^2  Coefficient
   ----------------    --------------   --------------   --------------  -----------
   u'w'                    -85.131             0.294           102.785         0.021
   u'v'                    -90.499             0.070            97.342         0.005
   v'w'                    -75.591             0.714            84.656         0.053


   Friction Velocity (Ustar)  =      0.542 m/s
   Maximum Instantaneous TKE  =    131.958 (m/s)^2
   Maximum Instantaneous CTKE =     73.957 (m/s)^2


Grid Point Variance Summary:

   Y-coord  -40.00    0.00   40.00

   Height   Standard deviation at grid points for the u component:
   124.29    3.750   3.731   3.688
    84.29    3.745   3.817   3.754
    44.29    3.742   3.786   3.722

   Height   Standard deviation at grid points for the v component:
   124.29    3.684   3.684   3.684
    84.29    3.684   3.684   3.684
    44.29    3.684   3.684   3.684

   Height   Standard deviation at grid points for the w component:
   124.29    3.684   3.684   3.684
    84.29    3.684   3.684   3.684
    44.29    3.684   3.684   3.684

   Mean standard deviation across all grid points:
      u component:    3.748 m/s
      v component:    3.684 m/s
      w component:    3.684 m/s


U-component (X) statistics from the hub grid point:

   Mean =  25.1518 m/s
   TI   =  15.1747 %


Normalizing Parameters for Binary Data (approximate statistics):

   UBar  =  25.1518 m/s
   TI(u) =  15.1747 %
   TI(v) =  14.6461 %
   TI(w) =  14.6461 %

   Height Offset =   0.0000 m
   Grid Base     =  44.2876 m

Nyquist frequency of turbulent wind field =         1.000 Hz


Processing complete.  8.00040E-02 CPU seconds used.
