
This summary file was generated by TurbSim (v1.06.01a-bjj, 18-Oct-2012) on 20-Dec-2013 at 11:43:46.


Runtime Options:

   2318573  Random seed #1
    RANLUX  Type of random number generator
         F  Output binary HH turbulence parameters?
         F  Output formatted turbulence parameters?
         F  Output AeroDyn HH files?
         F  Output AeroDyn FF files?
         T  Output BLADED FF files?
         F  Output tower data?
         F  Output formatted FF files?
         F  Output coherent turbulence time step file?
         T  Clockwise rotation when looking downwind?
 0 -  NONE  IEC turbulence models scaled to exact specified standard deviation


Turbine/Model Specifications:

         7  Vertical grid-point matrix dimension
         3  Horizontal grid-point matrix dimension
     0.200  Time step [seconds]
 12000.000  Analysis time [seconds]
 10000.000  Usable output time [seconds]
    84.288  Hub height [m]
    80.000  Grid height [m]
    80.000  Grid width [m]
     0.000  Vertical flow angle [degrees]
     0.000  Horizontal flow angle [degrees]


Meteorological Boundary Conditions:

    IECVKM  IEC von Karman spectral model
         1  IEC standard: IEC 61400-1 Ed. 2: 1999
         A  IEC turbulence characteristic
       NTM  IEC Normal Turbulence Model
       N/A  IEC Extreme Turbulence Model (ETM) "c" parameter [m/s]
       LOG  Wind profile type
    10.000  Reference height [m]
    18.400  Reference wind speed [m/s]
       N/A  Jet height [m]
       N/A  Power law exponent
     0.030  Surface roughness length [m]


You have requested that the following file(s) be generated:

   ./inp_files/IecVkm.wnd (AeroDyn/BLADED full-field wnd file)


Turbulence Simulation Scaling Parameter Summary:

   Turbulence model used                            =  IEC von Karman
   Turbulence characteristic                        =  A
   IEC turbulence type                              =  Normal Turbulence Model
   IEC standard                                     =  IEC 61400-1 Ed. 2: 1999
   Mean wind speed at hub height                    =   25.152 m/s
   Char value of turbulence intensity at 15 m/s     =   18.000%
   Standard deviation slope                         =    2.000
   Characteristic value of standard deviation       =    3.918 m/s
   Turbulence scale                                 =   21.000 m
   Isotropic integral scale                         =   73.500 m
   Characteristic value of hub turbulence intensity =   15.578%
   Gradient Richardson number                       =    0.000

   Wind profile type                                =  Logarithmic
   Equivalent power law exponent across rotor disk  =    0.128
   Mean shear across rotor disk                     =    0.041 (m/s)/m
   Assumed rotor diameter                           =   80.000 m
   Surface roughness length                         =    0.030 m

   Number of time steps in the FFT                  =    60000
   Number of time steps output                      =    50016


Mean Flow Angles:

   Vertical   =   0.0 degrees
   Horizontal =   0.0 degrees

Mean Wind Speed Profile:

   Height    Wind Speed   Horizontal Angle  U-comp (X)   V-comp (Y)   W-comp (Z)
     (m)        (m/s)         (degrees)       (m/s)        (m/s)        (m/s)   
   ------    ----------   ----------------  ----------   ----------   ----------
    124.3       26.38            0.00         26.38         0.00         0.00
    111.0       26.02            0.00         26.02         0.00         0.00
     97.6       25.62            0.00         25.62         0.00         0.00
     84.3       25.15            0.00         25.15         0.00         0.00
     71.0       24.61            0.00         24.61         0.00         0.00
     57.6       23.95            0.00         23.95         0.00         0.00
     44.3       23.11            0.00         23.11         0.00         0.00


Harvested Random Seeds after Generation of the Random Numbers:

     17561250 K1
            0 K2


Hub-Height Simulated Turbulence Statistical Summary:

   Type of Wind        Min (m/s)   Mean (m/s)    Max (m/s)  Sigma (m/s)       TI (%)
   ----------------    ---------   ----------    ---------  -----------       ------
   Longitudinal (u)         7.85        25.15        40.31        3.856       15.333
   Lateral (v)            -16.78        -0.00        13.99        3.791       15.072
   Vertical (w)           -15.10        -0.00        13.81        3.791       15.072
   U component              7.85        25.15        40.31        3.856       15.333
   V component            -16.78        -0.00        13.99        3.791       15.072
   W component            -15.10        -0.00        13.81        3.791       15.072
   Horizontal (U&V)         8.52        25.44        40.36        3.828       15.048
   Total                    9.32        25.72        40.38        3.813       14.823

                       Min Reynolds     Mean Reynolds    Max Reynolds    Correlation
   Product             Stress (m/s)^2   Stress (m/s)^2   Stress (m/s)^2  Coefficient
   ----------------    --------------   --------------   --------------  -----------
   u'w'                   -103.865             0.078           119.364         0.005
   u'v'                   -121.311             0.230           132.187         0.016
   v'w'                   -117.662            -0.056           108.183        -0.004


   Friction Velocity (Ustar)  =      0.278 m/s
   Maximum Instantaneous TKE  =    162.368 (m/s)^2
   Maximum Instantaneous CTKE =     77.795 (m/s)^2


Grid Point Variance Summary:

   Y-coord  -40.00    0.00   40.00

   Height   Standard deviation at grid points for the u component:
   124.29    3.850   3.783   3.856
   110.95    3.848   3.743   3.877
    97.62    3.852   3.808   3.861
    84.29    3.845   3.856   3.895
    70.95    3.846   3.874   3.916
    57.62    3.862   3.876   3.852
    44.29    3.824   3.888   3.814

   Height   Standard deviation at grid points for the v component:
   124.29    3.791   3.791   3.791
   110.95    3.791   3.791   3.791
    97.62    3.791   3.791   3.791
    84.29    3.791   3.791   3.791
    70.95    3.791   3.791   3.791
    57.62    3.791   3.791   3.791
    44.29    3.791   3.791   3.791

   Height   Standard deviation at grid points for the w component:
   124.29    3.791   3.791   3.791
   110.95    3.791   3.791   3.791
    97.62    3.791   3.791   3.791
    84.29    3.791   3.791   3.791
    70.95    3.791   3.791   3.791
    57.62    3.791   3.791   3.791
    44.29    3.791   3.791   3.791

   Mean standard deviation across all grid points:
      u component:    3.849 m/s
      v component:    3.791 m/s
      w component:    3.791 m/s


U-component (X) statistics from the hub grid point:

   Mean =  25.1518 m/s
   TI   =  15.3325 %


Normalizing Parameters for Binary Data (approximate statistics):

   UBar  =  25.1518 m/s
   TI(u) =  15.3325 %
   TI(v) =  15.0716 %
   TI(w) =  15.0716 %

   Height Offset =   0.0000 m
   Grid Base     =  44.2876 m

Nyquist frequency of turbulent wind field =         2.500 Hz


Processing complete.  4.8643 CPU seconds used.
