
This summary file was generated by TurbSim (v1.06.01a-bjj, 18-Oct-2012) on 25-Feb-2015 at 13:40:11.


Runtime Options:

   4625451  Random seed #1
    RANLUX  Type of random number generator
         F  Output binary HH turbulence parameters?
         F  Output formatted turbulence parameters?
         F  Output AeroDyn HH files?
         T  Output AeroDyn FF files?
         T  Output BLADED FF files?
         F  Output tower data?
         F  Output formatted FF files?
         F  Output coherent turbulence time step file?
         T  Clockwise rotation when looking downwind?
 0 -  NONE  IEC turbulence models scaled to exact specified standard deviation


Turbine/Model Specifications:

         5  Vertical grid-point matrix dimension
         5  Horizontal grid-point matrix dimension
     0.050  Time step [seconds]
   600.000  Analysis time [seconds]
   600.000  Usable output time [seconds]
    90.000  Hub height [m]
   140.000  Grid height [m]
   140.000  Grid width [m]
     0.000  Vertical flow angle [degrees]
     0.000  Horizontal flow angle [degrees]


Meteorological Boundary Conditions:

    IECKAI  IEC Kaimal spectral model
         1  IEC standard: IEC 61400-1 Ed. 3: 2005
         A  IEC turbulence characteristic
       NTM  IEC Normal Turbulence Model
       N/A  IEC Extreme Turbulence Model (ETM) "c" parameter [m/s]
       IEC  Wind profile type
    90.000  Reference height [m]
    10.000  Reference wind speed [m/s]
       N/A  Jet height [m]
     0.200  Power law exponent
     0.030  Surface roughness length [m]


You have requested that the following file(s) be generated:

   inp_files/Kaimal.bts (AeroDyn/TurbSim full-field wind file)
   inp_files/Kaimal.wnd (AeroDyn/BLADED full-field wnd file)


Turbulence Simulation Scaling Parameter Summary:

   Turbulence model used                            =  IEC Kaimal
   Turbulence characteristic                        =  A
   IEC turbulence type                              =  Normal Turbulence Model
   IEC standard                                     =  IEC 61400-1 Ed. 3: 2005
   Mean wind speed at hub height                    =   10.000 m/s
   Expected value of turbulence intensity at 15 m/s =   16.000%
   Characteristic value of standard deviation       =    2.096 m/s
   Turbulence scale                                 =   42.000 m
   u-component integral scale                       =  340.200 m
   Coherency scale                                  =  340.200 m
   Characteristic value of hub turbulence intensity =   20.960%
   Gradient Richardson number                       =    0.000

   Wind profile type                                =  Power law on rotor disk, logarithmic elsewhere
   Power law exponent                               =    0.200
   Mean shear across rotor disk                     =    0.027 (m/s)/m
   Assumed rotor diameter                           =  140.000 m
   Surface roughness length                         =    0.030 m

   Number of time steps in the FFT                  =    12288
   Number of time steps output                      =    12280


Mean Flow Angles:

   Vertical   =   0.0 degrees
   Horizontal =   0.0 degrees

Mean Wind Speed Profile:

   Height    Wind Speed   Horizontal Angle  U-comp (X)   V-comp (Y)   W-comp (Z)
     (m)        (m/s)         (degrees)       (m/s)        (m/s)        (m/s)   
   ------    ----------   ----------------  ----------   ----------   ----------
    160.0       11.22            0.00         11.22         0.00         0.00
    125.0       10.68            0.00         10.68         0.00         0.00
     90.0       10.00            0.00         10.00         0.00         0.00
     55.0        9.06            0.00          9.06         0.00         0.00
     20.0        7.40            0.00          7.40         0.00         0.00


Harvested Random Seeds after Generation of the Random Numbers:

      4281600 K1
            0 K2


Hub-Height Simulated Turbulence Statistical Summary:

   Type of Wind        Min (m/s)   Mean (m/s)    Max (m/s)  Sigma (m/s)       TI (%)
   ----------------    ---------   ----------    ---------  -----------       ------
   Longitudinal (u)         4.29        10.00        18.97        2.502       25.019
   Lateral (v)             -6.13         0.00         4.79        1.635       16.355
   Vertical (w)            -3.16         0.00         3.97        1.026       10.258
   U component              4.29        10.00        18.97        2.502       25.019
   V component             -6.13         0.00         4.79        1.635       16.355
   W component             -3.16         0.00         3.97        1.026       10.258
   Horizontal (U&V)         4.49        10.13        19.08        2.509       24.761
   Total                    4.51        10.19        19.08        2.498       24.524

                       Min Reynolds     Mean Reynolds    Max Reynolds    Correlation
   Product             Stress (m/s)^2   Stress (m/s)^2   Stress (m/s)^2  Coefficient
   ----------------    --------------   --------------   --------------  -----------
   u'w'                    -16.534            -0.067            18.147        -0.026
   u'v'                    -37.924            -0.619            17.678        -0.151
   v'w'                     -9.720            -0.050            13.610        -0.030


   Friction Velocity (Ustar)  =      0.260 m/s
   Maximum Instantaneous TKE  =     45.212 (m/s)^2
   Maximum Instantaneous CTKE =     18.973 (m/s)^2


Grid Point Variance Summary:

   Y-coord  -70.00  -35.00    0.00   35.00   70.00

   Height   Standard deviation at grid points for the u component:
   160.00    2.163   2.183   1.863   1.892   1.709
   125.00    2.073   2.071   1.858   2.100   2.214
    90.00    2.251   2.292   2.502   2.553   2.302
    55.00    2.058   2.388   2.333   2.591   2.223
    20.00    1.981   2.249   2.382   2.374   2.131

   Height   Standard deviation at grid points for the v component:
   160.00    1.635   1.635   1.635   1.635   1.635
   125.00    1.635   1.635   1.635   1.635   1.635
    90.00    1.635   1.635   1.635   1.635   1.635
    55.00    1.635   1.635   1.635   1.635   1.635
    20.00    1.635   1.635   1.635   1.635   1.635

   Height   Standard deviation at grid points for the w component:
   160.00    1.026   1.026   1.026   1.026   1.026
   125.00    1.026   1.026   1.026   1.026   1.026
    90.00    1.026   1.026   1.026   1.026   1.026
    55.00    1.026   1.026   1.026   1.026   1.026
    20.00    1.026   1.026   1.026   1.026   1.026

   Mean standard deviation across all grid points:
      u component:    2.189 m/s
      v component:    1.635 m/s
      w component:    1.026 m/s


U-component (X) statistics from the hub grid point:

   Mean =  10.0000 m/s
   TI   =  25.0190 %


Normalizing Parameters for Binary Data (approximate statistics):

   UBar  =  10.0000 m/s
   TI(u) =  25.0190 %
   TI(v) =  16.3546 %
   TI(w) =  10.2581 %

   Height Offset =   0.0000 m
   Grid Base     =  20.0000 m

Nyquist frequency of turbulent wind field =        10.000 Hz


Processing complete.  0.2496 CPU seconds used.
