
This summary file was generated by TurbSim (v1.06.01a-bjj, 18-Oct-2012) on 05-Mar-2014 at 16:03:25.


Runtime Options:

   2318573  Random seed #1
    RANLUX  Type of random number generator
         F  Output binary HH turbulence parameters?
         F  Output formatted turbulence parameters?
         F  Output AeroDyn HH files?
         F  Output AeroDyn FF files?
         T  Output BLADED FF files?
         F  Output tower data?
         F  Output formatted FF files?
         F  Output coherent turbulence time step file?
         T  Clockwise rotation when looking downwind?
 0 -  NONE  IEC turbulence models scaled to exact specified standard deviation


Turbine/Model Specifications:

         3  Vertical grid-point matrix dimension
         3  Horizontal grid-point matrix dimension
     0.500  Time step [seconds]
 54000.000  Analysis time [seconds]
 50000.000  Usable output time [seconds]
    70.570  Hub height [m]
    40.000  Grid height [m]
    40.000  Grid width [m]
     0.000  Vertical flow angle [degrees]
     0.000  Horizontal flow angle [degrees]


Meteorological Boundary Conditions:

    NWTCUP  NREL National Wind Technology Center spectral model
       N/A  IEC standard
       N/A  IEC turbulence characteristic
       N/A  IEC turbulence type
       N/A  IEC Extreme Turbulence Model (ETM) "c" parameter [m/s]
       PL   Wind profile type
     4.570  Reference height [m]
     1.700  Reference wind speed [m/s]
       N/A  Jet height [m]
CALCULATED  Power law exponent
     0.021  Surface roughness length [m]


Non-IEC Meteorological Boundary Conditions:

    45.000  Site latitude [degrees]
     0.050  Gradient Richardson number
     0.170  Friction or shear velocity [m/s]
       N/A  Mixing layer depth [m]
     0.000  Mean hub u'w' Reynolds stress
     0.000  Mean hub u'v' Reynolds stress
     0.000  Mean hub v'w' Reynolds stress
(   10.000, 0.300E-03)  u-component coherence parameters
(   10.000, 0.300E-03)  v-component coherence parameters
(   10.000, 0.300E-03)  w-component coherence parameters
     0.100  Coherence exponent


You have requested that the following file(s) be generated:

   ./inp_files/NWTCup.wnd (AeroDyn/BLADED full-field wnd file)


Turbulence Simulation Scaling Parameter Summary:

   Turbulence model used                            =  NREL National Wind Technology Center
   Gradient Richardson number                       =    0.050
   Monin-Obukhov (M-O) z/L parameter                =    0.184
   Monin-Obukhov (M-O) length scale                 =  382.720 m
   Mean wind speed at hub height                    =    2.544 m/s

   Wind profile type                                =  Power law
   Power law exponent                               =    0.147
   Mean shear across rotor disk                     =    0.005 (m/s)/m
   Assumed rotor diameter                           =   40.000 m
   Surface roughness length                         =    0.021 m

   Number of time steps in the FFT                  =   108000
   Number of time steps output                      =   100032


Mean Flow Angles:

   Vertical   =   0.0 degrees
   Horizontal =   0.0 degrees

Mean Wind Speed Profile:

   Height    Wind Speed   Horizontal Angle  U-comp (X)   V-comp (Y)   W-comp (Z)
     (m)        (m/s)         (degrees)       (m/s)        (m/s)        (m/s)   
   ------    ----------   ----------------  ----------   ----------   ----------
     90.6        2.64            0.00          2.64         0.00         0.00
     70.6        2.54            0.00          2.54         0.00         0.00
     50.6        2.42            0.00          2.42         0.00         0.00


Harvested Random Seeds after Generation of the Random Numbers:

     13547250 K1
            0 K2


Scaling statistics from the hub grid point:

   Cross-Component  Scaling Factor
   ---------------  --------------
   u'w'               -0.22147E-01
   u'v'               -0.60604E-01
   v'w'                0.76863E-01


Hub-Height Simulated Turbulence Statistical Summary:

   Type of Wind        Min (m/s)   Mean (m/s)    Max (m/s)  Sigma (m/s)       TI (%)
   ----------------    ---------   ----------    ---------  -----------       ------
   Longitudinal (u)         0.83         2.54         4.20        0.512       20.138
   Lateral (v)             -1.81        -0.00         1.69        0.467       18.360
   Vertical (w)            -1.13         0.00         1.07        0.250        9.818
   U component              0.83         2.54         4.20        0.512       20.138
   V component             -1.81        -0.00         1.69        0.467       18.360
   W component             -1.13         0.00         1.07        0.250        9.818
   Horizontal (U&V)         0.85         2.59         4.21        0.506       19.539
   Total                    0.89         2.60         4.22        0.503       19.350

                       Min Reynolds     Mean Reynolds    Max Reynolds    Correlation
   Product             Stress (m/s)^2   Stress (m/s)^2   Stress (m/s)^2  Coefficient
   ----------------    --------------   --------------   --------------  -----------
   u'w'                     -1.019            -0.000             1.053        -0.000
   u'v'                     -1.741            -0.000             2.246        -0.000
   v'w'                     -1.083            -0.000             1.015        -0.000


   Friction Velocity (Ustar)  =      0.000 m/s
   Maximum Instantaneous TKE  =      2.332 (m/s)^2
   Maximum Instantaneous CTKE =      1.172 (m/s)^2


Grid Point Variance Summary:

   Y-coord  -20.00    0.00   20.00

   Height   Standard deviation at grid points for the u component:
    90.57    0.487   0.507   0.516
    70.57    0.496   0.512   0.525
    50.57    0.511   0.514   0.527

   Height   Standard deviation at grid points for the v component:
    90.57    0.478   0.477   0.468
    70.57    0.455   0.467   0.464
    50.57    0.459   0.456   0.456

   Height   Standard deviation at grid points for the w component:
    90.57    0.248   0.245   0.244
    70.57    0.249   0.250   0.245
    50.57    0.248   0.246   0.244

   Mean standard deviation across all grid points:
      u component:    0.511 m/s
      v component:    0.464 m/s
      w component:    0.247 m/s


U-component (X) statistics from the hub grid point:

   Mean =   2.5444 m/s
   TI   =  20.1377 %


Normalizing Parameters for Binary Data (approximate statistics):

   UBar  =   2.5444 m/s
   TI(u) =  20.1377 %
   TI(v) =  18.3598 %
   TI(w) =   9.8176 %

   Height Offset =   0.0000 m
   Grid Base     =  50.5700 m

Nyquist frequency of turbulent wind field =         1.000 Hz


Processing complete.  3.9602 CPU seconds used.
