
This summary file was generated by TurbSim (v1.06.01a-bjj, 18-Oct-2012) on 21-May-2014 at 19:05:13.


Runtime Options:

   2318573  Random seed #1
    RANLUX  Type of random number generator
         F  Output binary HH turbulence parameters?
         F  Output formatted turbulence parameters?
         F  Output AeroDyn HH files?
         F  Output AeroDyn FF files?
         T  Output BLADED FF files?
         F  Output tower data?
         F  Output formatted FF files?
         F  Output coherent turbulence time step file?
         T  Clockwise rotation when looking downwind?
 0 -  NONE  IEC turbulence models scaled to exact specified standard deviation


Turbine/Model Specifications:

         3  Vertical grid-point matrix dimension
         3  Horizontal grid-point matrix dimension
     0.500  Time step [seconds]
  2400.000  Analysis time [seconds]
  2000.000  Usable output time [seconds]
     4.570  Hub height [m]
     4.000  Grid height [m]
     4.000  Grid width [m]
     0.000  Vertical flow angle [degrees]
     0.000  Horizontal flow angle [degrees]


Meteorological Boundary Conditions:

    RIVER   River Turbulence spectral model
       N/A  IEC standard
       N/A  IEC turbulence characteristic
       N/A  IEC turbulence type
       N/A  IEC Extreme Turbulence Model (ETM) "c" parameter [m/s]
       H2L  Wind profile type
     4.570  Reference height [m]
     1.700  Reference wind speed [m/s]
       N/A  Jet height [m]
       N/A  Power law exponent
     0.030  Surface roughness length [m]


Non-IEC Meteorological Boundary Conditions:

    45.000  Site latitude [degrees]
     0.050  Gradient Richardson number
     0.170  Friction or shear velocity [m/s]
       N/A  Mixing layer depth [m]
    -0.000  Mean hub u'w' Reynolds stress
       N/A  Mean hub u'v' Reynolds stress
       N/A  Mean hub v'w' Reynolds stress
(    1.700,  0.00    )  u-component coherence parameters
(    1.275,  0.00    )  v-component coherence parameters
(    1.275,  0.00    )  w-component coherence parameters
     0.000  Coherence exponent


You have requested that the following file(s) be generated:

   ./inp_files/River.wnd (AeroDyn/BLADED full-field wnd file)


Turbulence Simulation Scaling Parameter Summary:

   Turbulence model used                            =  River Turbulence
   Gradient Richardson number                       =    0.050
   Monin-Obukhov (M-O) z/L parameter                =    0.067
   Monin-Obukhov (M-O) length scale                 =   68.550 m
   Mean wind speed at hub height                    =    1.700 m/s

   Velocity profile type                            =  Logarithmic (H2L)
   Equivalent power law exponent across rotor disk  =    0.252
   Mean shear across rotor disk                     =    0.097 (m/s)/m
   Assumed rotor diameter                           =    4.000 m
   Surface roughness length                         =    0.030 m

   Number of time steps in the FFT                  =     4800
   Number of time steps output                      =     4005


Mean Flow Angles:

   Vertical   =   0.0 degrees
   Horizontal =   0.0 degrees

Mean Wind Speed Profile:

   Height    Wind Speed   Horizontal Angle  U-comp (X)   V-comp (Y)   W-comp (Z)
     (m)        (m/s)         (degrees)       (m/s)        (m/s)        (m/s)   
   ------    ----------   ----------------  ----------   ----------   ----------
      6.6        1.85            0.00          1.85         0.00         0.00
      4.6        1.70            0.00          1.70         0.00         0.00
      2.6        1.46            0.00          1.46         0.00         0.00


Harvested Random Seeds after Generation of the Random Numbers:

       602100 K1
            0 K2


Scaling statistics from the hub grid point:

   Cross-Component  Scaling Factor
   ---------------  --------------
   u'w'                0.11806E-02
   u'v'                0.00000E+00
   v'w'                0.00000E+00


Hub-Height Simulated Turbulence Statistical Summary:

   Type of Wind        Min (m/s)   Mean (m/s)    Max (m/s)  Sigma (m/s)       TI (%)
   ----------------    ---------   ----------    ---------  -----------       ------
   Longitudinal (u)         1.16         1.70         2.16        0.126        7.417
   Lateral (v)             -0.30         0.00         0.29        0.083        4.874
   Vertical (w)            -0.18        -0.00         0.17        0.052        3.030
   U component              1.16         1.70         2.16        0.126        7.417
   V component             -0.30         0.00         0.29        0.083        4.874
   W component             -0.18        -0.00         0.17        0.052        3.030
   Horizontal (U&V)         1.16         1.70         2.16        0.126        7.407
   Total                    1.16         1.70         2.16        0.126        7.402

                       Min Reynolds     Mean Reynolds    Max Reynolds    Correlation
   Product             Stress (m/s)^2   Stress (m/s)^2   Stress (m/s)^2  Coefficient
   ----------------    --------------   --------------   --------------  -----------
   u'w'                     -0.039             0.000             0.054         0.000
   u'v'                     -0.064             0.001             0.063         0.062
   v'w'                     -0.035             0.000             0.032         0.008


   Friction Velocity (Ustar)  =      0.000 m/s
   Maximum Instantaneous TKE  =      0.153 (m/s)^2
   Maximum Instantaneous CTKE =      0.034 (m/s)^2


Grid Point Variance Summary:

   Y-coord   -2.00    0.00    2.00

   Height   Standard deviation at grid points for the u component:
     6.57    0.082   0.082   0.081
     4.57    0.124   0.126   0.126
     2.57    0.193   0.193   0.195

   Height   Standard deviation at grid points for the v component:
     6.57    0.055   0.055   0.055
     4.57    0.083   0.083   0.083
     2.57    0.127   0.127   0.128

   Height   Standard deviation at grid points for the w component:
     6.57    0.034   0.034   0.034
     4.57    0.051   0.052   0.052
     2.57    0.078   0.078   0.078

   Mean standard deviation across all grid points:
      u component:    0.134 m/s
      v component:    0.089 m/s
      w component:    0.055 m/s


U-component (X) statistics from the hub grid point:

   Mean =   1.7000 m/s
   TI   =   7.4173 %


Normalizing Parameters for Binary Data (approximate statistics):

   UBar  =   1.7000 m/s
   TI(u) =   7.4173 %
   TI(v) =   4.8745 %
   TI(w) =   3.0299 %

   Height Offset =   0.0000 m
   Grid Base     =   2.5700 m

Nyquist frequency of turbulent wind field =         1.000 Hz


Processing complete.  6.40000E-02 CPU seconds used.
