
This summary file was generated by TurbSim (v1.06.01a-bjj, 18-Oct-2012) on 28-Oct-2015 at 15:08:26.


Runtime Options:

   2318573  Random seed #1
    RANLUX  Type of random number generator
         F  Output binary HH turbulence parameters?
         F  Output formatted turbulence parameters?
         F  Output AeroDyn HH files?
         F  Output AeroDyn FF files?
         T  Output BLADED FF files?
         F  Output tower data?
         T  Output formatted FF files?
         F  Output coherent turbulence time step file?
         T  Clockwise rotation when looking downwind?
 0 -  NONE  IEC turbulence models scaled to exact specified standard deviation


Turbine/Model Specifications:

         3  Vertical grid-point matrix dimension
         3  Horizontal grid-point matrix dimension
     0.200  Time step [seconds]
 12000.000  Analysis time [seconds]
 10000.000  Usable output time [seconds]
    84.288  Hub height [m]
    80.000  Grid height [m]
    80.000  Grid width [m]
     0.000  Vertical flow angle [degrees]
     0.000  Horizontal flow angle [degrees]


Meteorological Boundary Conditions:

    SMOOTH  RISO Smooth Terrain spectral model
       N/A  IEC standard
       N/A  IEC turbulence characteristic
       N/A  IEC turbulence type
       N/A  IEC Extreme Turbulence Model (ETM) "c" parameter [m/s]
       LOG  Wind profile type
    84.288  Reference height [m]
    18.400  Reference wind speed [m/s]
       N/A  Jet height [m]
       N/A  Power law exponent
     0.010  Surface roughness length [m]


Non-IEC Meteorological Boundary Conditions:

    45.000  Site latitude [degrees]
     0.050  Gradient Richardson number
     0.065  Friction or shear velocity [m/s]
       N/A  Mixing layer depth [m]
    -0.010  Mean hub u'w' Reynolds stress
     0.000  Mean hub u'v' Reynolds stress
       N/A  Mean hub v'w' Reynolds stress
(   18.400,  0.00    )  u-component coherence parameters
(   13.800,  0.00    )  v-component coherence parameters
(   13.800,  0.00    )  w-component coherence parameters
     0.000  Coherence exponent


You have requested that the following file(s) be generated:

   inp_files\Smooth.wnd (AeroDyn/BLADED full-field wnd file)
   inp_files\Smooth.u (formatted full-field U-component file)
   inp_files\Smooth.v (formatted full-field V-component file)
   inp_files\Smooth.w (formatted full-field W-component file)


Turbulence Simulation Scaling Parameter Summary:

   Turbulence model used                            =  RISO Smooth Terrain
   Gradient Richardson number                       =    0.050
   Monin-Obukhov (M-O) z/L parameter                =    0.067
   Monin-Obukhov (M-O) length scale                 = 1264.314 m
   Mean wind speed at hub height                    =   18.400 m/s

   Wind profile type                                =  Logarithmic
   Equivalent power law exponent across rotor disk  =    0.108
   Mean shear across rotor disk                     =    0.025 (m/s)/m
   Assumed rotor diameter                           =   80.000 m
   Surface roughness length                         =    0.010 m

   Number of time steps in the FFT                  =    60000
   Number of time steps output                      =    50022


Mean Flow Angles:

   Vertical   =   0.0 degrees
   Horizontal =   0.0 degrees

Mean Wind Speed Profile:

   Height    Wind Speed   Horizontal Angle  U-comp (X)   V-comp (Y)   W-comp (Z)
     (m)        (m/s)         (degrees)       (m/s)        (m/s)        (m/s)   
   ------    ----------   ----------------  ----------   ----------   ----------
    124.3       19.16            0.00         19.16         0.00         0.00
     84.3       18.40            0.00         18.40         0.00         0.00
     44.3       17.14            0.00         17.14         0.00         0.00


Harvested Random Seeds after Generation of the Random Numbers:

      7526250 K1
            0 K2


Scaling statistics from the hub grid point:

   Cross-Component  Scaling Factor
   ---------------  --------------
   u'w'               -0.34773E+00
   u'v'                0.48439E-02
   v'w'                0.00000E+00


Hub-Height Simulated Turbulence Statistical Summary:

   Type of Wind        Min (m/s)   Mean (m/s)    Max (m/s)  Sigma (m/s)       TI (%)
   ----------------    ---------   ----------    ---------  -----------       ------
   Longitudinal (u)        17.76        18.40        19.17        0.170        0.924
   Lateral (v)             -0.55         0.00         0.48        0.127        0.689
   Vertical (w)            -0.54         0.00         0.47        0.113        0.613
   U component             17.76        18.40        19.17        0.170        0.924
   V component             -0.55         0.00         0.48        0.127        0.689
   W component             -0.54         0.00         0.47        0.113        0.613
   Horizontal (U&V)        17.76        18.40        19.17        0.170        0.924
   Total                   17.76        18.40        19.18        0.170        0.924

                       Min Reynolds     Mean Reynolds    Max Reynolds    Correlation
   Product             Stress (m/s)^2   Stress (m/s)^2   Stress (m/s)^2  Coefficient
   ----------------    --------------   --------------   --------------  -----------
   u'w'                     -0.420            -0.010             0.081        -0.522
   u'v'                     -0.189             0.000             0.183         0.005
   v'w'                     -0.175             0.000             0.166        -0.003


   Friction Velocity (Ustar)  =      0.100 m/s
   Maximum Instantaneous TKE  =      0.448 (m/s)^2
   Maximum Instantaneous CTKE =      0.212 (m/s)^2


Grid Point Variance Summary:

   Y-coord  -40.00    0.00   40.00

   Height   Standard deviation at grid points for the u component:
   124.29    0.169   0.170   0.175
    84.29    0.172   0.170   0.173
    44.29    0.168   0.172   0.168

   Height   Standard deviation at grid points for the v component:
   124.29    0.129   0.127   0.127
    84.29    0.128   0.127   0.125
    44.29    0.126   0.126   0.125

   Height   Standard deviation at grid points for the w component:
   124.29    0.113   0.113   0.112
    84.29    0.112   0.113   0.112
    44.29    0.111   0.111   0.111

   Mean standard deviation across all grid points:
      u component:    0.171 m/s
      v component:    0.127 m/s
      w component:    0.112 m/s


U-component (X) statistics from the hub grid point:

   Mean =  18.4000 m/s
   TI   =   0.9239 %


Normalizing Parameters for Binary Data (approximate statistics):

   UBar  =  18.4000 m/s
   TI(u) =   0.9239 %
   TI(v) =   0.6890 %
   TI(w) =   0.6129 %

   Height Offset =   0.0000 m
   Grid Base     =  44.2876 m

Nyquist frequency of turbulent wind field =         2.500 Hz


Processing complete.  27.815 CPU seconds used.
