
This summary file was generated by TurbSim (v1.06.01a-bjj, 18-Oct-2012) on 12-Mar-2014 at 11:25:34.


Runtime Options:

   2318573  Random seed #1
    RANLUX  Type of random number generator
         F  Output binary HH turbulence parameters?
         F  Output formatted turbulence parameters?
         F  Output AeroDyn HH files?
         T  Output AeroDyn FF files?
         T  Output BLADED FF files?
         F  Output tower data?
         F  Output formatted FF files?
         F  Output coherent turbulence time step file?
         T  Clockwise rotation when looking downwind?
 0 -  NONE  IEC turbulence models scaled to exact specified standard deviation


Turbine/Model Specifications:

        15  Vertical grid-point matrix dimension
        13  Horizontal grid-point matrix dimension
     0.500  Time step [seconds]
  6000.000  Analysis time [seconds]
  4000.000  Usable output time [seconds]
    10.000  Hub height [m]
     3.000  Grid height [m]
    10.000  Grid width [m]
     0.000  Vertical flow angle [degrees]
     0.000  Horizontal flow angle [degrees]


Meteorological Boundary Conditions:

    TIDAL   Tidal Channel Turbulence spectral model
       N/A  IEC standard
       N/A  IEC turbulence characteristic
       N/A  IEC turbulence type
       N/A  IEC Extreme Turbulence Model (ETM) "c" parameter [m/s]
       H2L  Wind profile type
    10.000  Reference height [m]
     2.400  Reference wind speed [m/s]
       N/A  Jet height [m]
       N/A  Power law exponent
       N/A  Surface roughness length [m]


Non-IEC Meteorological Boundary Conditions:

    45.000  Site latitude [degrees]
       N/A  Gradient Richardson number
     0.033  Friction or shear velocity [m/s]
       N/A  Mixing layer depth [m]
    -0.000  Mean hub u'w' Reynolds stress
       N/A  Mean hub u'v' Reynolds stress
       N/A  Mean hub v'w' Reynolds stress
(    2.400,  0.00    )  u-component coherence parameters
(    1.800,  0.00    )  v-component coherence parameters
(    1.800,  0.00    )  w-component coherence parameters
     0.000  Coherence exponent


You have requested that the following file(s) be generated:

   test/inp_files/Tidal.bts (AeroDyn/TurbSim full-field wind file)
   test/inp_files/Tidal.wnd (AeroDyn/BLADED full-field wnd file)


Turbulence Simulation Scaling Parameter Summary:

   Turbulence model used                            =  Tidal Channel Turbulence
   Gradient Richardson number                       =  N/A
   Mean velocity at hub height                      =    2.400 m/s

   Velocity profile type                            =  Logarithmic (H2L)
   Equivalent power law exponent across rotor disk  =    0.034
   Mean shear across rotor disk                     =    0.008 (m/s)/m
   Assumed rotor diameter                           =    3.000 m
   Surface roughness length                         =    0.030 m

   Number of time steps in the FFT                  =    12000
   Number of time steps output                      =     8009


Mean Flow Angles:

   Vertical   =   0.0 degrees
   Horizontal =   0.0 degrees

Mean Wind Speed Profile:

   Height    Wind Speed   Horizontal Angle  U-comp (X)   V-comp (Y)   W-comp (Z)
     (m)        (m/s)         (degrees)       (m/s)        (m/s)        (m/s)   
   ------    ----------   ----------------  ----------   ----------   ----------
     11.5        2.41            0.00          2.41         0.00         0.00
     11.3        2.41            0.00          2.41         0.00         0.00
     11.1        2.41            0.00          2.41         0.00         0.00
     10.9        2.41            0.00          2.41         0.00         0.00
     10.6        2.41            0.00          2.41         0.00         0.00
     10.4        2.40            0.00          2.40         0.00         0.00
     10.2        2.40            0.00          2.40         0.00         0.00
     10.0        2.40            0.00          2.40         0.00         0.00
      9.8        2.40            0.00          2.40         0.00         0.00
      9.6        2.40            0.00          2.40         0.00         0.00
      9.4        2.39            0.00          2.39         0.00         0.00
      9.1        2.39            0.00          2.39         0.00         0.00
      8.9        2.39            0.00          2.39         0.00         0.00
      8.7        2.39            0.00          2.39         0.00         0.00
      8.5        2.39            0.00          2.39         0.00         0.00


Harvested Random Seeds after Generation of the Random Numbers:

     32613750 K1
            0 K2


Scaling statistics from the hub grid point:

   Cross-Component  Scaling Factor
   ---------------  --------------
   u'w'                0.13732E-03
   u'v'                0.00000E+00
   v'w'                0.00000E+00


Hub-Height Simulated Turbulence Statistical Summary:

   Type of Wind        Min (m/s)   Mean (m/s)    Max (m/s)  Sigma (m/s)       TI (%)
   ----------------    ---------   ----------    ---------  -----------       ------
   Longitudinal (u)         2.31         2.40         2.49        0.025        1.053
   Lateral (v)             -0.06        -0.00         0.07        0.018        0.734
   Vertical (w)            -0.04         0.00         0.04        0.011        0.456
   U component              2.31         2.40         2.49        0.025        1.053
   V component             -0.06        -0.00         0.07        0.018        0.734
   W component             -0.04         0.00         0.04        0.011        0.456
   Horizontal (U&V)         2.31         2.40         2.49        0.025        1.052
   Total                    2.31         2.40         2.49        0.025        1.052

                       Min Reynolds     Mean Reynolds    Max Reynolds    Correlation
   Product             Stress (m/s)^2   Stress (m/s)^2   Stress (m/s)^2  Coefficient
   ----------------    --------------   --------------   --------------  -----------
   u'w'                     -0.002            -0.000             0.002        -0.000
   u'v'                     -0.003             0.000             0.004         0.010
   v'w'                     -0.001            -0.000             0.001        -0.006


   Friction Velocity (Ustar)  =      0.000 m/s
   Maximum Instantaneous TKE  =      0.004 (m/s)^2
   Maximum Instantaneous CTKE =      0.002 (m/s)^2


Grid Point Variance Summary:

   Y-coord   -5.00   -4.17   -3.33   -2.50   -1.67   -0.83    0.00    0.83    1.67    2.50    3.33    4.17    5.00

   Height   Standard deviation at grid points for the u component:
    11.50    0.022   0.022   0.022   0.022   0.022   0.022   0.022   0.022   0.022   0.022   0.022   0.022   0.022
    11.29    0.022   0.022   0.022   0.022   0.022   0.022   0.022   0.022   0.022   0.022   0.022   0.022   0.022
    11.07    0.023   0.023   0.023   0.023   0.023   0.022   0.023   0.023   0.023   0.023   0.023   0.023   0.023
    10.86    0.023   0.023   0.023   0.023   0.023   0.023   0.023   0.023   0.023   0.023   0.023   0.023   0.023
    10.64    0.024   0.024   0.024   0.024   0.024   0.023   0.024   0.024   0.024   0.024   0.024   0.024   0.024
    10.43    0.024   0.024   0.024   0.024   0.024   0.024   0.024   0.024   0.024   0.024   0.024   0.024   0.024
    10.21    0.025   0.025   0.025   0.025   0.025   0.025   0.025   0.025   0.025   0.025   0.025   0.025   0.025
    10.00    0.025   0.025   0.025   0.025   0.025   0.025   0.025   0.025   0.025   0.025   0.025   0.025   0.025
     9.79    0.026   0.026   0.026   0.026   0.026   0.026   0.026   0.026   0.026   0.026   0.026   0.026   0.026
     9.57    0.026   0.026   0.026   0.026   0.026   0.026   0.026   0.026   0.026   0.026   0.026   0.026   0.026
     9.36    0.027   0.027   0.027   0.027   0.027   0.027   0.027   0.027   0.027   0.027   0.027   0.027   0.027
     9.14    0.028   0.027   0.027   0.028   0.028   0.028   0.028   0.027   0.028   0.027   0.028   0.027   0.027
     8.93    0.028   0.028   0.028   0.028   0.028   0.028   0.028   0.028   0.028   0.028   0.028   0.028   0.028
     8.71    0.029   0.029   0.029   0.029   0.029   0.029   0.029   0.029   0.029   0.029   0.029   0.029   0.029
     8.50    0.030   0.029   0.029   0.029   0.029   0.030   0.030   0.029   0.029   0.029   0.029   0.029   0.029

   Height   Standard deviation at grid points for the v component:
    11.50    0.015   0.015   0.015   0.015   0.015   0.015   0.015   0.015   0.015   0.015   0.015   0.015   0.015
    11.29    0.016   0.016   0.016   0.016   0.016   0.016   0.016   0.016   0.015   0.015   0.015   0.015   0.015
    11.07    0.016   0.016   0.016   0.016   0.016   0.016   0.016   0.016   0.016   0.016   0.016   0.016   0.016
    10.86    0.016   0.016   0.016   0.016   0.016   0.016   0.016   0.016   0.016   0.016   0.016   0.016   0.016
    10.64    0.017   0.017   0.017   0.017   0.017   0.017   0.017   0.017   0.017   0.016   0.016   0.016   0.016
    10.43    0.017   0.017   0.017   0.017   0.017   0.017   0.017   0.017   0.017   0.017   0.017   0.017   0.017
    10.21    0.018   0.017   0.017   0.017   0.017   0.017   0.017   0.017   0.017   0.017   0.017   0.017   0.017
    10.00    0.018   0.018   0.018   0.018   0.018   0.018   0.018   0.018   0.018   0.018   0.018   0.018   0.018
     9.79    0.018   0.018   0.018   0.018   0.018   0.018   0.018   0.018   0.018   0.018   0.018   0.018   0.018
     9.57    0.019   0.019   0.019   0.019   0.019   0.018   0.018   0.018   0.018   0.018   0.018   0.018   0.018
     9.36    0.019   0.019   0.019   0.019   0.019   0.019   0.019   0.019   0.019   0.019   0.019   0.019   0.019
     9.14    0.019   0.019   0.019   0.019   0.019   0.019   0.019   0.019   0.019   0.019   0.019   0.019   0.019
     8.93    0.020   0.020   0.020   0.020   0.020   0.020   0.020   0.020   0.020   0.020   0.019   0.019   0.019
     8.71    0.020   0.020   0.020   0.020   0.020   0.020   0.020   0.020   0.020   0.020   0.020   0.020   0.020
     8.50    0.021   0.021   0.021   0.021   0.020   0.020   0.021   0.020   0.020   0.020   0.020   0.020   0.020

   Height   Standard deviation at grid points for the w component:
    11.50    0.009   0.009   0.009   0.009   0.009   0.009   0.009   0.009   0.009   0.009   0.009   0.009   0.009
    11.29    0.010   0.010   0.010   0.010   0.010   0.010   0.010   0.010   0.010   0.010   0.010   0.010   0.010
    11.07    0.010   0.010   0.010   0.010   0.010   0.010   0.010   0.010   0.010   0.010   0.010   0.010   0.010
    10.86    0.010   0.010   0.010   0.010   0.010   0.010   0.010   0.010   0.010   0.010   0.010   0.010   0.010
    10.64    0.010   0.010   0.010   0.010   0.010   0.010   0.010   0.010   0.010   0.010   0.010   0.010   0.010
    10.43    0.011   0.011   0.011   0.011   0.010   0.010   0.010   0.011   0.011   0.011   0.011   0.011   0.011
    10.21    0.011   0.011   0.011   0.011   0.011   0.011   0.011   0.011   0.011   0.011   0.011   0.011   0.011
    10.00    0.011   0.011   0.011   0.011   0.011   0.011   0.011   0.011   0.011   0.011   0.011   0.011   0.011
     9.79    0.011   0.011   0.011   0.011   0.011   0.011   0.011   0.011   0.011   0.011   0.011   0.011   0.011
     9.57    0.012   0.012   0.012   0.012   0.011   0.011   0.011   0.012   0.012   0.012   0.012   0.012   0.012
     9.36    0.012   0.012   0.012   0.012   0.012   0.012   0.012   0.012   0.012   0.012   0.012   0.012   0.012
     9.14    0.012   0.012   0.012   0.012   0.012   0.012   0.012   0.012   0.012   0.012   0.012   0.012   0.012
     8.93    0.012   0.012   0.012   0.012   0.012   0.012   0.012   0.012   0.012   0.012   0.012   0.012   0.012
     8.71    0.013   0.013   0.013   0.013   0.013   0.013   0.012   0.013   0.013   0.013   0.013   0.013   0.013
     8.50    0.013   0.013   0.013   0.013   0.013   0.013   0.013   0.013   0.013   0.013   0.013   0.013   0.013

   Mean standard deviation across all grid points:
      u component:    0.025 m/s
      v component:    0.018 m/s
      w component:    0.011 m/s


U-component (X) statistics from the hub grid point:

   Mean =   2.4000 m/s
   TI   =   1.0525 %


Normalizing Parameters for Binary Data (approximate statistics):

   UBar  =   2.4000 m/s
   TI(u) =   1.0525 %
   TI(v) =   0.7335 %
   TI(w) =   0.4564 %

   Height Offset =   0.0000 m
   Grid Base     =   8.5000 m

Nyquist frequency of turbulent wind field =         1.000 Hz


Processing complete.  26.562 CPU seconds used.
